*Heading
** Job name: Job-1 Model name: Model-1
** Generated by: Abaqus/CAE 6.14-1
*Preprint, echo=NO, model=NO, history=NO, contact=NO
**
** PARTS
**
*Part, name=board
*Node
      1, -0.00300000003, -0.0250000004,           0.
      2, -0.00300000003, -0.0250000004, 0.00499999989
      3, -0.0250000004, -0.0250000004, 0.00499999989
      4, -0.0250000004, -0.0250000004,           0.
      5, -0.00300000003, 0.0252500009, 0.00499999989
      6, -0.0250000004, 0.0252500009, 0.00499999989
      7, -0.0250000004, 0.0252500009,           0.
      8, -0.00300000003, 0.0252500009,           0.
      9, 0.00300000003, -0.0250000004, 0.00499999989
     10, 0.00300000003, 0.0252500009, 0.00499999989
     11, 0.00300000003, 0.0252500009,           0.
     12, 0.00300000003, -0.0250000004,           0.
     13, 0.0250000004, 0.0252500009, 0.00499999989
     14, 0.0250000004, -0.0250000004, 0.00499999989
     15, 0.0250000004, -0.0250000004,           0.
     16, 0.0250000004, 0.0252500009,           0.
     17, -0.00300000003, -0.0250000004, 0.000500000024
     18, -0.00300000003, -0.0250000004, 0.00100000005
     19, -0.00300000003, -0.0250000004, 0.00150000001
     20, -0.00300000003, -0.0250000004, 0.00200000009
** ... 13422 like lines cut
*Element, type=DC3D8
   1,  164, 1509, 4155,  741,    1,   17,  453,   66
   2, 1509, 1510, 4156, 4155,   17,   18,  454,  453
   3, 1510, 1511, 4157, 4156,   18,   19,  455,  454
   4, 1511, 1512, 4158, 4157,   19,   20,  456,  455
   5, 1512, 1513, 4159, 4158,   20,   21,  457,  456
   6, 1513, 1514, 4160, 4159,   21,   22,  458,  457
   7, 1514, 1515, 4161, 4160,   22,   23,  459,  458
   8, 1515, 1516, 4162, 4161,   23,   24,  460,  459
   9, 1516, 1517, 4163, 4162,   24,   25,  461,  460
  10, 1517,  189, 1125, 4163,   25,    2,   26,  461
  11,  741, 4155, 4164,  742,   66,  453,  462,   65
  12, 4155, 4156, 4165, 4164,  453,  454,  463,  462
  13, 4156, 4157, 4166, 4165,  454,  455,  464,  463
  14, 4157, 4158, 4167, 4166,  455,  456,  465,  464
  15, 4158, 4159, 4168, 4167,  456,  457,  466,  465
  16, 4159, 4160, 4169, 4168,  457,  458,  467,  466
  17, 4160, 4161, 4170, 4169,  458,  459,  468,  467
  18, 4161, 4162, 4171, 4170,  459,  460,  469,  468
  19, 4162, 4163, 4172, 4171,  460,  461,  470,  469
  20, 4163, 1125, 1126, 4172,  461,   26,   27,  470
** ... 11480 like lines cut
*Nset, nset=_PickedSet2, internal, generate
     1,  13442,      1
*Elset, elset=_PickedSet2, internal, generate
     1,  11500,      1
** Section: Section-1
*Solid Section, elset=_PickedSet2, material=ams304
,
*End Part
**  
**
** ASSEMBLY
**
*Assembly, name=Assembly
**  
*Instance, name=board-1, part=board
*End Instance
**  
*Nset, nset=Set-32, instance=board-1
    1,    2,    5,    8,    9,   10,   11,   12,   17,   18,   19,   20,   21,   22,   23,   24
   25,   67,   68,   69,   70,   71,   72,   73,   74,   75,  141,  142,  143,  144,  145,  146
  147,  148,  149,  150,  151,  152,  153,  154,  155,  156,  157,  158,  159,  160,  161,  162
  163,  164,  189,  190,  191,  192,  193,  194,  195,  196,  197,  198,  199,  200,  201,  202
  203,  204,  205,  206,  207,  208,  209,  210,  211,  212,  213,  214,  215,  216,  217,  218
  219,  220,  221,  222,  223,  224,  225,  226,  227,  228,  229,  230,  231,  232,  233,  234
  235,  236,  237,  238,  239,  240,  241,  242,  243,  244,  245,  246,  247,  248,  249,  250
  251,  252,  253,  254,  255,  256,  257,  258,  259,  260,  261,  262,  263,  264,  265,  266
  267,  268,  269,  270,  271,  272,  273,  274,  275,  276,  277,  278,  279,  280,  281,  282
  283,  284,  285,  286,  287,  288,  289,  290,  291,  292,  293,  294,  295,  296,  297,  298
  299,  300,  301,  302,  303,  304,  305,  306,  307,  308,  309,  310,  311,  312,  313,  314
  315,  316,  317,  318,  319,  320,  321,  322, 1509, 1510, 1511, 1512, 1513, 1514, 1515, 1516
 1517, 1518, 1519, 1520, 1521, 1522, 1523, 1524, 1525, 1526, 1527, 1528, 1529, 1530, 1531, 1532
 1533, 1534, 1535, 1536, 1537, 1538, 1539, 1540, 1541, 1542, 1543, 1544, 1545, 1546, 1547, 1548
 1549, 1550, 1551, 1552, 1553, 1554, 1555, 1556, 1557, 1558, 1559, 1560, 1561, 1562, 1563, 1564
 1565, 1566, 1567, 1568, 1569, 1570, 1571, 1572, 1573, 1574, 1575, 1576, 1577, 1578, 1579, 1580
 1581, 1582, 1583, 1584, 1585, 1586, 1587, 1588, 1589, 1590, 1591, 1592, 1593, 1594, 1595, 1596
 1597, 1598, 1599, 1600, 1601, 1602, 1603, 1604, 1605, 1606, 1607, 1608, 1609, 1610, 1611, 1612
 1613, 1614, 1615, 1616, 1617, 1618, 1619, 1620, 1621, 1622, 1623, 1624, 1625, 1626, 1627, 1628
 1629, 1630, 1631, 1632, 1633, 1634, 1635, 1636, 1637, 1638, 1639, 1640, 1641, 1642, 1643, 1644
** ... 213 like lines cut
*Elset, elset=Set-32, instance=board-1, generate
 4251,  7250,     1
*Nset, nset=Set-33, instance=board-1, generate
     1,  13442,      1
*Elset, elset=Set-33, instance=board-1, generate
     1,  11500,      1
*Nset, nset=Set-34, instance=board-1
  4,  7, 15, 16
*Elset, elset=_Surf-2_S2, internal, instance=board-1
    1,    2,    3,    4,    5,    6,    7,    8,    9,   10,   11,   12,   13,   14,   15,   16
   17,   18,   19,   20,   21,   22,   23,   24,   25,   26,   27,   28,   29,   30,   31,   32
   33,   34,   35,   36,   37,   38,   39,   40,   41,   42,   43,   44,   45,   46,   47,   48
   49,   50,   51,   52,   53,   54,   55,   56,   57,   58,   59,   60,   61,   62,   63,   64
   65,   66,   67,   68,   69,   70,   71,   72,   73,   74,   75,   76,   77,   78,   79,   80
   81,   82,   83,   84,   85,   86,   87,   88,   89,   90,   91,   92,   93,   94,   95,   96
   97,   98,   99,  100,  101,  102,  103,  104,  105,  106,  107,  108,  109,  110,  111,  112
  113,  114,  115,  116,  117,  118,  119,  120,  121,  122,  123,  124,  125,  126,  127,  128
  129,  130,  131,  132,  133,  134,  135,  136,  137,  138,  139,  140,  141,  142,  143,  144
  145,  146,  147,  148,  149,  150,  151,  152,  153,  154,  155,  156,  157,  158,  159,  160
  161,  162,  163,  164,  165,  166,  167,  168,  169,  170, 4251, 4252, 4253, 4254, 4255, 4256
 4257, 4258, 4259, 4260, 4261, 4262, 4263, 4264, 4265, 4266, 4267, 4268, 4269, 4270, 4271, 4272
 4273, 4274, 4275, 4276, 4277, 4278, 4279, 4280, 4281, 4282, 4283, 4284, 4285, 4286, 4287, 4288
 4289, 4290, 4291, 4292, 4293, 4294, 4295, 4296, 4297, 4298, 4299, 4300, 4301, 4302, 4303, 4304
 4305, 4306, 4307, 4308, 4309, 4310, 4311, 4312, 4313, 4314, 4315, 4316, 4317, 4318, 4319, 4320
 4321, 4322, 4323, 4324, 4325, 4326, 4327, 4328, 4329, 4330, 4331, 4332, 4333, 4334, 4335, 4336
 4337, 4338, 4339, 4340, 4341, 4342, 4343, 4344, 4345, 4346, 4347, 4348, 4349, 4350, 4351, 4352
 4353, 4354, 4355, 4356, 4357, 4358, 4359, 4360, 4361, 4362, 4363, 4364, 4365, 4366, 4367, 4368
 4369, 4370, 4371, 4372, 4373, 4374, 4375, 4376, 4377, 4378, 4379, 4380, 4381, 4382, 4383, 4384
 4385, 4386, 4387, 4388, 4389, 4390, 4391, 4392, 4393, 4394, 4395, 4396, 4397, 4398, 4399, 4400
** ... 25 like lines cut
*Elset, elset=_Surf-2_S6, internal, instance=board-1
     1,    11,    21,    31,    41,    51,    61,    71,    81,    91,   101,   111,   121,   131,   141,   151
   161,   171,   181,   191,   201,   211,   221,   231,   241,   251,   261,   271,   281,   291,   301,   311
   321,   331,   341,   351,   361,   371,   381,   391,   401,   411,   421,   431,   441,   451,   461,   471
   481,   491,   501,   511,   521,   531,   541,   551,   561,   571,   581,   591,   601,   611,   621,   631
   641,   651,   661,   671,   681,   691,   701,   711,   721,   731,   741,   751,   761,   771,   781,   791
   801,   811,   821,   831,   841,   851,   861,   871,   881,   891,   901,   911,   921,   931,   941,   951
   961,   971,   981,   991,  1001,  1011,  1021,  1031,  1041,  1051,  1061,  1071,  1081,  1091,  1101,  1111
  1121,  1131,  1141,  1151,  1161,  1171,  1181,  1191,  1201,  1211,  1221,  1231,  1241,  1251,  1261,  1271
  1281,  1291,  1301,  1311,  1321,  1331,  1341,  1351,  1361,  1371,  1381,  1391,  1401,  1411,  1421,  1431
  1441,  1451,  1461,  1471,  1481,  1491,  1501,  1511,  1521,  1531,  1541,  1551,  1561,  1571,  1581,  1591
  1601,  1611,  1621,  1631,  1641,  1651,  1661,  1671,  1681,  1691,  1701,  1711,  1721,  1731,  1741,  1751
  1761,  1771,  1781,  1791,  1801,  1811,  1821,  1831,  1841,  1851,  1861,  1871,  1881,  1891,  1901,  1911
  1921,  1931,  1941,  1951,  1961,  1971,  1981,  1991,  2001,  2011,  2021,  2031,  2041,  2051,  2061,  2071
  2081,  2091,  2101,  2111,  2121,  2131,  2141,  2151,  2161,  2171,  2181,  2191,  2201,  2211,  2221,  2231
  2241,  2251,  2261,  2271,  2281,  2291,  2301,  2311,  2321,  2331,  2341,  2351,  2361,  2371,  2381,  2391
  2401,  2411,  2421,  2431,  2441,  2451,  2461,  2471,  2481,  2491,  2501,  2511,  2521,  2531,  2541,  2551
  2561,  2571,  2581,  2591,  2601,  2611,  2621,  2631,  2641,  2651,  2661,  2671,  2681,  2691,  2701,  2711
  2721,  2731,  2741,  2751,  2761,  2771,  2781,  2791,  2801,  2811,  2821,  2831,  2841,  2851,  2861,  2871
  2881,  2891,  2901,  2911,  2921,  2931,  2941,  2951,  2961,  2971,  2981,  2991,  3001,  3011,  3021,  3031
  3041,  3051,  3061,  3071,  3081,  3091,  3101,  3111,  3121,  3131,  3141,  3151,  3161,  3171,  3181,  3191
** ... 25 like lines cut
*Elset, elset=_Surf-2_S5, internal, instance=board-1
   161,   162,   163,   164,   165,   166,   167,   168,   169,   170,   331,   332,   333,   334,   335,   336
   337,   338,   339,   340,   501,   502,   503,   504,   505,   506,   507,   508,   509,   510,   671,   672
   673,   674,   675,   676,   677,   678,   679,   680,   841,   842,   843,   844,   845,   846,   847,   848
   849,   850,  1011,  1012,  1013,  1014,  1015,  1016,  1017,  1018,  1019,  1020,  1181,  1182,  1183,  1184
  1185,  1186,  1187,  1188,  1189,  1190,  1351,  1352,  1353,  1354,  1355,  1356,  1357,  1358,  1359,  1360
  1521,  1522,  1523,  1524,  1525,  1526,  1527,  1528,  1529,  1530,  1691,  1692,  1693,  1694,  1695,  1696
  1697,  1698,  1699,  1700,  1861,  1862,  1863,  1864,  1865,  1866,  1867,  1868,  1869,  1870,  2031,  2032
  2033,  2034,  2035,  2036,  2037,  2038,  2039,  2040,  2201,  2202,  2203,  2204,  2205,  2206,  2207,  2208
  2209,  2210,  2371,  2372,  2373,  2374,  2375,  2376,  2377,  2378,  2379,  2380,  2541,  2542,  2543,  2544
  2545,  2546,  2547,  2548,  2549,  2550,  2711,  2712,  2713,  2714,  2715,  2716,  2717,  2718,  2719,  2720
  2881,  2882,  2883,  2884,  2885,  2886,  2887,  2888,  2889,  2890,  3051,  3052,  3053,  3054,  3055,  3056
  3057,  3058,  3059,  3060,  3221,  3222,  3223,  3224,  3225,  3226,  3227,  3228,  3229,  3230,  3391,  3392
  3393,  3394,  3395,  3396,  3397,  3398,  3399,  3400,  3561,  3562,  3563,  3564,  3565,  3566,  3567,  3568
  3569,  3570,  3731,  3732,  3733,  3734,  3735,  3736,  3737,  3738,  3739,  3740,  3901,  3902,  3903,  3904
  3905,  3906,  3907,  3908,  3909,  3910,  4071,  4072,  4073,  4074,  4075,  4076,  4077,  4078,  4079,  4080
  4241,  4242,  4243,  4244,  4245,  4246,  4247,  4248,  4249,  4250,  7476,  7477,  7478,  7479,  7480,  7481
  7482,  7483,  7484,  7485,  7486,  7487,  7488,  7489,  7490,  7491,  7492,  7493,  7494,  7495,  7496,  7497
  7498,  7499,  7500,  7726,  7727,  7728,  7729,  7730,  7731,  7732,  7733,  7734,  7735,  7736,  7737,  7738
  7739,  7740,  7741,  7742,  7743,  7744,  7745,  7746,  7747,  7748,  7749,  7750,  7976,  7977,  7978,  7979
  7980,  7981,  7982,  7983,  7984,  7985,  7986,  7987,  7988,  7989,  7990,  7991,  7992,  7993,  7994,  7995
** ... 23 like lines cut
*Elset, elset=_Surf-2_S4, internal, instance=board-1
    10,    20,    30,    40,    50,    60,    70,    80,    90,   100,   110,   120,   130,   140,   150,   160
   170,   180,   190,   200,   210,   220,   230,   240,   250,   260,   270,   280,   290,   300,   310,   320
   330,   340,   350,   360,   370,   380,   390,   400,   410,   420,   430,   440,   450,   460,   470,   480
   490,   500,   510,   520,   530,   540,   550,   560,   570,   580,   590,   600,   610,   620,   630,   640
   650,   660,   670,   680,   690,   700,   710,   720,   730,   740,   750,   760,   770,   780,   790,   800
   810,   820,   830,   840,   850,   860,   870,   880,   890,   900,   910,   920,   930,   940,   950,   960
   970,   980,   990,  1000,  1010,  1020,  1030,  1040,  1050,  1060,  1070,  1080,  1090,  1100,  1110,  1120
  1130,  1140,  1150,  1160,  1170,  1180,  1190,  1200,  1210,  1220,  1230,  1240,  1250,  1260,  1270,  1280
  1290,  1300,  1310,  1320,  1330,  1340,  1350,  1360,  1370,  1380,  1390,  1400,  1410,  1420,  1430,  1440
  1450,  1460,  1470,  1480,  1490,  1500,  1510,  1520,  1530,  1540,  1550,  1560,  1570,  1580,  1590,  1600
  1610,  1620,  1630,  1640,  1650,  1660,  1670,  1680,  1690,  1700,  1710,  1720,  1730,  1740,  1750,  1760
  1770,  1780,  1790,  1800,  1810,  1820,  1830,  1840,  1850,  1860,  1870,  1880,  1890,  1900,  1910,  1920
  1930,  1940,  1950,  1960,  1970,  1980,  1990,  2000,  2010,  2020,  2030,  2040,  2050,  2060,  2070,  2080
  2090,  2100,  2110,  2120,  2130,  2140,  2150,  2160,  2170,  2180,  2190,  2200,  2210,  2220,  2230,  2240
  2250,  2260,  2270,  2280,  2290,  2300,  2310,  2320,  2330,  2340,  2350,  2360,  2370,  2380,  2390,  2400
  2410,  2420,  2430,  2440,  2450,  2460,  2470,  2480,  2490,  2500,  2510,  2520,  2530,  2540,  2550,  2560
  2570,  2580,  2590,  2600,  2610,  2620,  2630,  2640,  2650,  2660,  2670,  2680,  2690,  2700,  2710,  2720
  2730,  2740,  2750,  2760,  2770,  2780,  2790,  2800,  2810,  2820,  2830,  2840,  2850,  2860,  2870,  2880
  2890,  2900,  2910,  2920,  2930,  2940,  2950,  2960,  2970,  2980,  2990,  3000,  3010,  3020,  3030,  3040
  3050,  3060,  3070,  3080,  3090,  3100,  3110,  3120,  3130,  3140,  3150,  3160,  3170,  3180,  3190,  3200
** ... 25 like lines cut
*Elset, elset=_Surf-2_S3, internal, instance=board-1
  7251,  7252,  7253,  7254,  7255,  7256,  7257,  7258,  7259,  7260,  7261,  7262,  7263,  7264,  7265,  7266
  7267,  7268,  7269,  7270,  7271,  7272,  7273,  7274,  7275,  7501,  7502,  7503,  7504,  7505,  7506,  7507
  7508,  7509,  7510,  7511,  7512,  7513,  7514,  7515,  7516,  7517,  7518,  7519,  7520,  7521,  7522,  7523
  7524,  7525,  7751,  7752,  7753,  7754,  7755,  7756,  7757,  7758,  7759,  7760,  7761,  7762,  7763,  7764
  7765,  7766,  7767,  7768,  7769,  7770,  7771,  7772,  7773,  7774,  7775,  8001,  8002,  8003,  8004,  8005
  8006,  8007,  8008,  8009,  8010,  8011,  8012,  8013,  8014,  8015,  8016,  8017,  8018,  8019,  8020,  8021
  8022,  8023,  8024,  8025,  8251,  8252,  8253,  8254,  8255,  8256,  8257,  8258,  8259,  8260,  8261,  8262
  8263,  8264,  8265,  8266,  8267,  8268,  8269,  8270,  8271,  8272,  8273,  8274,  8275,  8501,  8502,  8503
  8504,  8505,  8506,  8507,  8508,  8509,  8510,  8511,  8512,  8513,  8514,  8515,  8516,  8517,  8518,  8519
  8520,  8521,  8522,  8523,  8524,  8525,  8751,  8752,  8753,  8754,  8755,  8756,  8757,  8758,  8759,  8760
  8761,  8762,  8763,  8764,  8765,  8766,  8767,  8768,  8769,  8770,  8771,  8772,  8773,  8774,  8775,  9001
  9002,  9003,  9004,  9005,  9006,  9007,  9008,  9009,  9010,  9011,  9012,  9013,  9014,  9015,  9016,  9017
  9018,  9019,  9020,  9021,  9022,  9023,  9024,  9025,  9251,  9252,  9253,  9254,  9255,  9256,  9257,  9258
  9259,  9260,  9261,  9262,  9263,  9264,  9265,  9266,  9267,  9268,  9269,  9270,  9271,  9272,  9273,  9274
  9275,  9501,  9502,  9503,  9504,  9505,  9506,  9507,  9508,  9509,  9510,  9511,  9512,  9513,  9514,  9515
  9516,  9517,  9518,  9519,  9520,  9521,  9522,  9523,  9524,  9525,  9751,  9752,  9753,  9754,  9755,  9756
  9757,  9758,  9759,  9760,  9761,  9762,  9763,  9764,  9765,  9766,  9767,  9768,  9769,  9770,  9771,  9772
  9773,  9774,  9775, 10001, 10002, 10003, 10004, 10005, 10006, 10007, 10008, 10009, 10010, 10011, 10012, 10013
 10014, 10015, 10016, 10017, 10018, 10019, 10020, 10021, 10022, 10023, 10024, 10025, 10251, 10252, 10253, 10254
 10255, 10256, 10257, 10258, 10259, 10260, 10261, 10262, 10263, 10264, 10265, 10266, 10267, 10268, 10269, 10270
** ... 7 like lines cut
*Elset, elset=_Surf-2_S1, internal, instance=board-1
 4081, 4082, 4083, 4084, 4085, 4086, 4087, 4088, 4089, 4090, 4091, 4092, 4093, 4094, 4095, 4096
 4097, 4098, 4099, 4100, 4101, 4102, 4103, 4104, 4105, 4106, 4107, 4108, 4109, 4110, 4111, 4112
 4113, 4114, 4115, 4116, 4117, 4118, 4119, 4120, 4121, 4122, 4123, 4124, 4125, 4126, 4127, 4128
 4129, 4130, 4131, 4132, 4133, 4134, 4135, 4136, 4137, 4138, 4139, 4140, 4141, 4142, 4143, 4144
 4145, 4146, 4147, 4148, 4149, 4150, 4151, 4152, 4153, 4154, 4155, 4156, 4157, 4158, 4159, 4160
 4161, 4162, 4163, 4164, 4165, 4166, 4167, 4168, 4169, 4170, 4171, 4172, 4173, 4174, 4175, 4176
 4177, 4178, 4179, 4180, 4181, 4182, 4183, 4184, 4185, 4186, 4187, 4188, 4189, 4190, 4191, 4192
 4193, 4194, 4195, 4196, 4197, 4198, 4199, 4200, 4201, 4202, 4203, 4204, 4205, 4206, 4207, 4208
 4209, 4210, 4211, 4212, 4213, 4214, 4215, 4216, 4217, 4218, 4219, 4220, 4221, 4222, 4223, 4224
 4225, 4226, 4227, 4228, 4229, 4230, 4231, 4232, 4233, 4234, 4235, 4236, 4237, 4238, 4239, 4240
 4241, 4242, 4243, 4244, 4245, 4246, 4247, 4248, 4249, 4250, 6951, 6952, 6953, 6954, 6955, 6956
 6957, 6958, 6959, 6960, 6961, 6962, 6963, 6964, 6965, 6966, 6967, 6968, 6969, 6970, 6971, 6972
 6973, 6974, 6975, 6976, 6977, 6978, 6979, 6980, 6981, 6982, 6983, 6984, 6985, 6986, 6987, 6988
 6989, 6990, 6991, 6992, 6993, 6994, 6995, 6996, 6997, 6998, 6999, 7000, 7001, 7002, 7003, 7004
 7005, 7006, 7007, 7008, 7009, 7010, 7011, 7012, 7013, 7014, 7015, 7016, 7017, 7018, 7019, 7020
 7021, 7022, 7023, 7024, 7025, 7026, 7027, 7028, 7029, 7030, 7031, 7032, 7033, 7034, 7035, 7036
 7037, 7038, 7039, 7040, 7041, 7042, 7043, 7044, 7045, 7046, 7047, 7048, 7049, 7050, 7051, 7052
 7053, 7054, 7055, 7056, 7057, 7058, 7059, 7060, 7061, 7062, 7063, 7064, 7065, 7066, 7067, 7068
 7069, 7070, 7071, 7072, 7073, 7074, 7075, 7076, 7077, 7078, 7079, 7080, 7081, 7082, 7083, 7084
 7085, 7086, 7087, 7088, 7089, 7090, 7091, 7092, 7093, 7094, 7095, 7096, 7097, 7098, 7099, 7100
** ... 10 like lines cut
*Surface, type=ELEMENT, name=Surf-2
_Surf-2_S2, S2
_Surf-2_S6, S6
_Surf-2_S4, S4
_Surf-2_S5, S5
_Surf-2_S3, S3
_Surf-2_S1, S1
*End Assembly
*Amplitude, name=Amp-1, definition=PERIODIC
1,             0.5,              0.,             50.
            10.,             20.
** 
** MATERIALS
** 
*Material, name=ams304
*Conductivity
 55.7143, 25.0002
 47.6191,   362.5
     30., 793.749
     30., 1343.75
*Density
 7886.67, 2.94147
 7651.11,    400.
 7408.89, 797.059
*Elastic
 2.08e+11, 0.295679,       0.
 2.02e+11,  0.33642,     200.
 1.69e+11, 0.372839,     400.
    1e+11, 0.408642,     600.
 6.11e+10, 0.440741,     800.
 3.46e+10, 0.462346,    1000.
*Expansion
 6.92308e-07, 19.4175
 6.92308e-07, 100.971
    3.75e-06, 699.029
 1.58654e-06, 798.058
 1.38462e-06, 899.029
 2.58654e-06,   1200.
*Plastic
 2.341e+08,         0.,        20.
 3.119e+08, 0.00471206,        20.
 3.556e+08,  0.0217277,        20.
 3.754e+08,  0.0439791,        20.
 3.889e+08,  0.0688482,        20.
 4.016e+08,  0.0997382,        20.
 4.127e+08,   0.149476,        20.
 4.222e+08,   0.199476,        20.
 1.913e+08,         0.,       250.
 2.143e+08, 0.00130892,       250.
 2.302e+08, 0.00759163,       250.
 2.389e+08,  0.0204188,       250.
 2.444e+08,   0.041623,       250.
 2.524e+08,  0.0997382,       250.
 2.571e+08,   0.149476,       250.
 2.595e+08,   0.199215,       250.
 1.087e+08,         0.,       500.
 1.238e+08, 0.00130892,       500.
  1.31e+08, 0.00732986,       500.
 1.365e+08,  0.0248691,       500.
** ... 21 like lines cut
*Specific Heat
 455.556,     16.
 648.148,    496.
 737.037, 650.667
 1188.89, 757.333
 737.037, 858.667
 674.074, 949.333
** 
** PHYSICAL CONSTANTS
** 
*Physical Constants, absolute zero=-273.15, stefan boltzmann=5.6704e-08
** 
** BOUNDARY CONDITIONS
** 
** Name: BC-1 Type: Displacement/Rotation
*Boundary
Set-34, 1, 1
Set-34, 2, 2
Set-34, 3, 3
Set-34, 4, 4
Set-34, 5, 5
Set-34, 6, 6
** 
** PREDEFINED FIELDS
** 
** Name: Predefined Field-1   Type: Temperature
*Initial Conditions, type=TEMPERATURE
Set-33, 25.
** ----------------------------------------------------------------
** 
** STEP: step-welding
** 
*Step, name=step-welding, nlgeom=NO, inc=1000
*Heat Transfer, end=PERIOD, deltmx=50.
0.0001, 10., 1e-06, 10., 
** 
** LOADS
** 
** Name: Load-1   Type: Body heat flux
*Dflux
Set-32, BFNU, 1.
** 
** INTERACTIONS
** 
** Interaction: Int-1
*Sfilm
Surf-2, F, 20., 10.
** 
** OUTPUT REQUESTS
** 
*Restart, write, frequency=0
** 
** FIELD OUTPUT: F-Output-1
** 
*Output, field, frequency=10
*Node Output
NT, 
*Output, history, frequency=0
*End Step
** ----------------------------------------------------------------
** 
** STEP: step-cooling
** 
*Step, name=step-cooling, nlgeom=NO
*Heat Transfer, end=PERIOD, deltmx=50.
1e-05, 200., 2e-07, 200., 
** 
** LOADS
** 
** Name: Load-1   Type: Body heat flux
*Dflux, op=NEW
** 
** OUTPUT REQUESTS
** 
*Restart, write, frequency=0
** 
** FIELD OUTPUT: F-Output-1
** 
*Output, field, frequency=10
*Node Output
NT, 
*Output, history, frequency=0
*End Step
